Circuit: * E:\Prof. Project\Laser\Current Controller\Simulation\Draft1.asc

Direct Newton iteration for .op point succeeded.

Date: Mon Jul 25 18:27:51 2022
Total elapsed time: 0.052 seconds.

tnom = 27
temp = 27
method = modified trap
totiter = 77
traniter = 74
tranpoints = 38
accept = 38
rejected = 0
matrix size = 6
fillins = 0
solver = Normal
Matrix Compiler1: 236 bytes object code size
Matrix Compiler2: 396 bytes object code size
