Circuit: * E:\Prof. Project\Laser\Current Controller\Simulation\Draft3.asc

WARNING: Less than two connections to node NC_01.  This node is used by V1.
WARNING: Less than two connections to node NC_02.  This node is used by V4.
WARNING: Less than two connections to node N004.  This node is used by R12.
Direct Newton iteration failed to find .op point.  (Use ".option noopiter" to skip.)
Starting Gmin stepping
Gmin = 10
Gmin = 1.07374
Gmin = 0.115292
Gmin = 0.0123794
Gmin = 0.00132923
Gmin = 0.000142725
Gmin = 1.5325e-005
Gmin = 1.6455e-006
Gmin = 1.76685e-007
vernier = 0.5
vernier = 0.25
Gmin = 3.70535e-008
vernier = 0.125
vernier = 0.0625
vernier = 0.03125
vernier = 0.015625
vernier = 0.0078125
vernier = 0.00390625
vernier = 0.00195313
vernier = 0.000976563
vernier = 0.000488281
Gmin = 0
Gmin = 0
Gmin stepping failed

Starting source stepping with srcstepmethod=0
Source Step = 3.0303%
vernier = 0.25
Source Step = 0.0177557%
Source Step = 0.0473485%
Source Step = 0.0769413%
Source Step = 0.106534%
Source Step = 0.136127%
vernier = 0.00146484
Source Step = 0.170159%
Source Step = 0.214548%
Source Step = 0.258937%
Source Step = 0.303326%
Source Step = 0.347715%
vernier = 0.00219727
Source Step = 0.396544%
Source Step = 0.463127%
Source Step = 0.529711%
Source Step = 0.596295%
Source Step = 0.662879%
vernier = 0.0032959
Source Step = 0.732792%
Source Step = 0.832667%
Source Step = 0.932543%
Source Step = 1.03242%
Source Step = 1.13229%
Source Step = 1.23217%
vernier = 0.00494385
Source Step = 1.38198%
Source Step = 1.5318%
Source Step = 1.68161%
Source Step = 1.83142%
Source Step = 1.98124%
vernier = 0.00741577
Source Step = 2.19847%
Source Step = 2.42319%
Source Step = 2.64791%
Source Step = 2.87263%
Source Step = 3.09735%
vernier = 0.0111237
Source Step = 3.41196%
Source Step = 3.74904%
Source Step = 4.08612%
Source Step = 4.4232%
Source Step = 4.76028%
vernier = 0.0166855
Source Step = 5.21534%
Source Step = 5.72096%
Source Step = 6.22658%
Source Step = 6.7322%
Source Step = 7.23782%
vernier = 0.0250282
Source Step = 7.89513%
Source Step = 8.65356%
Source Step = 9.41199%
Source Step = 10.1704%
Source Step = 10.9289%
vernier = 0.0375423
Source Step = 11.8769%
Source Step = 13.0145%
Source Step = 14.1522%
Source Step = 15.2898%
Source Step = 16.4275%
vernier = 0.0563135
Source Step = 17.7927%
Source Step = 19.4991%
Source Step = 21.2056%
Source Step = 22.9121%
Source Step = 24.6185%
vernier = 0.0844703
Source Step = 26.581%
Source Step = 29.1407%
Source Step = 31.7004%
Source Step = 34.2601%
Source Step = 36.8198%
vernier = 0.126705
Source Step = 39.6355%
Source Step = 43.475%
Source Step = 47.3146%
Source Step = 51.1541%
Source Step = 54.9937%
vernier = 0.190058
Source Step = 59.0252%
Source Step = 64.7846%
Source Step = 70.5439%
Source Step = 76.3033%
Source Step = 82.0626%
Source Step = 87.8219%
vernier = 0.285087
Source Step = 93.9232%
vernier = 0.00445449
Source Step = 93.8996%
Source Step = 93.9333%
Source Step = 93.9671%
Source Step = 94.0008%
Source Step = 94.0346%
Source Step = 94.0683%
Source Step = 94.1021%
Source Step = 94.1358%
Source Step = 94.1696%
Source Step = 94.2033%
Source Step = 94.2371%
Source Step = 94.2708%
Source Step = 94.3046%
Source Step = 94.3383%
Source Step = 94.372%
Source Step = 94.4058%
Source Step = 94.4395%
Source Step = 94.4733%
Source Step = 94.507%
Source Step = 94.5408%
Source Step = 94.5745%
Source Step = 94.6083%
Source Step = 94.642%
Source Step = 94.6758%
Source Step = 94.7095%
Source Step = 94.7433%
Source Step = 94.777%
Source Step = 94.8107%
Source Step = 94.8445%
Source Step = 94.8782%
Source Step = 94.912%
Source Step = 94.9457%
Source Step = 94.9795%
Source Step = 95.0132%
Source Step = 95.047%
Source Step = 95.0807%
Source Step = 95.1145%
Source Step = 95.1482%
Source Step = 95.182%
Source Step = 95.2157%
Source Step = 95.2494%
Source Step = 95.2832%
Source Step = 95.3169%
Source Step = 95.3507%
Source Step = 95.3844%
Source Step = 95.4182%
Source Step = 95.4519%
Source Step = 95.4857%
Source Step = 95.5194%
Source Step = 95.5532%
Source Step = 95.5869%
Source Step = 95.6207%
Source Step = 95.6544%
Source Step = 95.6881%
Source Step = 95.7219%
Source Step = 95.7556%
Source Step = 95.7894%
Source Step = 95.8231%
Source Step = 95.8569%
Source Step = 95.8906%
Source Step = 95.9244%
Source Step = 95.9581%
Source Step = 95.9919%
Source Step = 96.0256%
Source Step = 96.0594%
Source Step = 96.0931%
Source Step = 96.1268%
Source Step = 96.1606%
Source Step = 96.1943%
Source Step = 96.2281%
Source Step = 96.2618%
Source Step = 96.2956%
Source Step = 96.3293%
Source Step = 96.3631%
Source Step = 96.3968%
Source Step = 96.4306%
Source Step = 96.4643%
Source Step = 96.498%
Source Step = 96.5318%
Source Step = 96.5655%
Source Step = 96.5993%
Source Step = 96.633%
Source Step = 96.6668%
Source Step = 96.7005%
Source Step = 96.7343%
Source Step = 96.768%
Source Step = 96.8018%
Source Step = 96.8355%
Source Step = 96.8693%
Source Step = 96.903%
Source Step = 96.9367%
Source Step = 96.9705%
Source Step = 97.0042%
Source Step = 97.038%
Source Step = 97.0717%
Source Step = 97.1055%
Source Step = 97.1392%
Source Step = 97.173%
Source Step = 97.2067%
Source Step = 97.2405%
Source Step = 97.2742%
Source Step = 97.308%
Source Step = 97.3417%
Source Step = 97.3754%
Source Step = 97.4092%
Source Step = 97.4429%
Source Step = 97.4767%
Source Step = 97.5104%
Source Step = 97.5442%
Source Step = 97.5779%
Source Step = 97.6117%
Source Step = 97.6454%
Source Step = 97.6792%
Source Step = 97.7129%
Source Step = 97.7467%
Source Step = 97.7804%
Source Step = 97.8141%
Source Step = 97.8479%
Source Step = 97.8816%
Source Step = 97.9154%
Source Step = 97.9491%
Source Step = 97.9829%
Source Step = 98.0166%
Source Step = 98.0504%
Source Step = 98.0841%
Source Step = 98.1179%
Source Step = 98.1516%
Source Step = 98.1854%
Source Step = 98.2191%
Source Step = 98.2528%
Source Step = 98.2866%
Source Step = 98.3203%
Source Step = 98.3541%
Source Step = 98.3878%
Source Step = 98.4216%
Source Step = 98.4553%
Source Step = 98.4891%
Source Step = 98.5228%
Source Step = 98.5566%
Source Step = 98.5903%
Source Step = 98.6241%
Source Step = 98.6578%
Source Step = 98.6915%
Source Step = 98.7253%
Source Step = 98.759%
Source Step = 98.7928%
Source Step = 98.8265%
Source Step = 98.8603%
Source Step = 98.894%
Source Step = 98.9278%
Source Step = 98.9615%
Source Step = 98.9953%
Source Step = 99.029%
Source Step = 99.0628%
Source Step = 99.0965%
Source Step = 99.1302%
Source Step = 99.164%
Source Step = 99.1977%
Source Step = 99.2315%
Source Step = 99.2652%
Source Step = 99.299%
Source Step = 99.3327%
Source Step = 99.3665%
Source Step = 99.4002%
Source Step = 99.434%
Source Step = 99.4677%
Source Step = 99.5015%
Source Step = 99.5352%
Source Step = 99.5689%
Source Step = 99.6027%
Source Step = 99.6364%
Source Step = 99.6702%
Source Step = 99.7039%
Source Step = 99.7377%
Source Step = 99.7714%
Source Step = 99.8052%
Source Step = 99.8389%
Source Step = 99.8727%
Source Step = 99.9064%
Source Step = 99.9402%
Source Step = 99.9739%
Source Step = 100%
Source Step = 100%
Source Step = 100%
Source Step = 100%
Source Step = 100%
Source Step = 100%
Source Step = 100%
Source Step = 100%
Source Step = 100%
Source Step = 100%
Source Step = 100%
Source Step = 100%
Source Step = 100%
Source Step = 100%
Source Step = 100%
Starting source stepping with srcstepmethod=1
Source Step = 3.0303%
Source Step = 33.3333%
Source Step = 63.6364%
Source Step = 93.9394%
Source Step = 100%
Source Step = 99.003%
Source Step = 99.0326%
Source Step = 99.0621%
Source Step = 99.0917%
Source Step = 99.1213%
Source Step = 99.1509%
Source Step = 99.1805%
Source Step = 99.2101%
Source Step = 99.2397%
Source Step = 99.2693%
Source Step = 99.2989%
Source Step = 99.3285%
Source Step = 99.3581%
Source Step = 99.3877%
Source Step = 99.4173%
Source Step = 99.4469%
Source Step = 99.4764%
Source Step = 99.506%
Source Step = 99.5356%
Source Step = 99.5652%
Source Step = 99.5948%
Source Step = 99.6244%
Source Step = 99.654%
Source Step = 99.6836%
Source Step = 99.7132%
Source Step = 99.7428%
Source Step = 99.7724%
Source Step = 99.802%
Source Step = 99.8316%
Source Step = 99.8612%
Source Step = 99.8907%
Source Step = 99.9203%
Source Step = 99.9499%
Source Step = 99.9795%
Source Step = 100%
Source Step = 100%
Source Step = 100%
Source Step = 100%
Source Step = 100%
Source stepping failed

Pseudo Transient failed in finding the operating point at 5 µs.
Trouble finding operating point....skipping operating point for Transient analysis.
Changing Tseed to 1e-007
Changing Tseed to 1e-009
Changing Tseed to 1e-006
Changing Tseed to 1e-010
Changing Tseed to 1e-005
Changing Tseed to 1e-011
Changing Tseed to 0.0001
Changing Tseed to 1e-012
Changing Tseed to 0.001
Changing Tseed to 1e-013
Changing Tseed to 0.01
Changing Tseed to 1e-014
Fatal Error: Analysis:  Time step too small; initial timepoint: trouble with u1:dx-instance d:u1:2

